$DATA1 SOURCE='PrimeSim HSPICE' VERSION='T-2022.06-SP1 linux64' PARAM_COUNT=0
.TITLE ''
 iavg             iavgio           power            temper          
 alter#          
 -2.299e-04       -4.952e-12       -2.529e-04        2.500e+01      
1               
